**************************************************
* OpenRAM generated memory.
* Words: 256
* Data bits: 32
* Banks: 1
* Column mux: 1:1
* Trimmed: False
* LVS: False
**************************************************
* Copyright 2020 The SkyWater PDK Authors
*
* Licensed under the Apache License, Version 2.0 (the "License");
* you may not use this file except in compliance with the License.
* You may obtain a copy of the License at
*
*     https://www.apache.org/licenses/LICENSE-2.0
*
* Unless required by applicable law or agreed to in writing, software
* distributed under the License is distributed on an "AS IS" BASIS,
* WITHOUT WARRANTIES OR CONDITIONS OF ANY KIND, either express or implied.
* See the License for the specific language governing permissions and
* limitations under the License.
*
* SPDX-License-Identifier: Apache-2.0

* SPICE3 file created from sky130_fd_bd_sram__openram_dff.ext - technology: EFS8A

.subckt sky130_fd_bd_sram__openram_dff D Q CLK VDD GND
X1000 a_511_725# a_n8_115# VDD VDD sky130_fd_pr__pfet_01v8 W=3 L=0.15
X1001 a_353_115# CLK a_11_624# GND sky130_fd_pr__nfet_01v8 W=1 L=0.15
X1002 a_353_725# a_203_89# a_11_624# VDD sky130_fd_pr__pfet_01v8 W=3 L=0.15
X1003 a_11_624# a_203_89# a_161_115# GND sky130_fd_pr__nfet_01v8 W=1 L=0.15
X1004 a_11_624# CLK a_161_725# VDD sky130_fd_pr__pfet_01v8 W=3 L=0.15
X1005 GND Q a_703_115# GND sky130_fd_pr__nfet_01v8 W=1 L=0.15
X1006 VDD Q a_703_725# VDD sky130_fd_pr__pfet_01v8 W=3 L=0.15
X1007 a_203_89# CLK GND GND sky130_fd_pr__nfet_01v8 W=1 L=0.15
X1008 a_203_89# CLK VDD VDD sky130_fd_pr__pfet_01v8 W=3 L=0.15
X1009 a_161_115# D GND GND sky130_fd_pr__nfet_01v8 W=1 L=0.15
X1010 a_161_725# D VDD VDD sky130_fd_pr__pfet_01v8 W=3 L=0.15
X1011 GND a_11_624# a_n8_115# GND sky130_fd_pr__nfet_01v8 W=1 L=0.15
X1012 a_703_115# a_203_89# ON GND sky130_fd_pr__nfet_01v8 W=1 L=0.15
X1013 VDD a_11_624# a_n8_115# VDD sky130_fd_pr__pfet_01v8 W=3 L=0.15
X1014 a_703_725# CLK ON VDD sky130_fd_pr__pfet_01v8 W=3 L=0.15
X1015 Q ON VDD VDD sky130_fd_pr__pfet_01v8 W=3 L=0.15
X1016 Q ON GND GND sky130_fd_pr__nfet_01v8 W=1 L=0.15
X1017 ON a_203_89# a_511_725# VDD sky130_fd_pr__pfet_01v8 W=3 L=0.15
X1018 ON CLK a_511_115# GND sky130_fd_pr__nfet_01v8 W=1 L=0.15
X1019 GND a_n8_115# a_353_115# GND sky130_fd_pr__nfet_01v8 W=1 L=0.15
X1020 VDD a_n8_115# a_353_725# VDD sky130_fd_pr__pfet_01v8 W=3 L=0.15
X1021 a_511_115# a_n8_115# GND GND sky130_fd_pr__nfet_01v8 W=1 L=0.15
.ends

.SUBCKT sram_32b_256_1rw_sky130_spare_wen_dff
+ din_0 dout_0 clk vdd gnd
* INPUT : din_0 
* OUTPUT: dout_0 
* INPUT : clk 
* POWER : vdd 
* GROUND: gnd 
* rows: 1 cols: 1
Xdff_r0_c0
+ din_0 dout_0 CLK VDD GND
+ sky130_fd_bd_sram__openram_dff
.ENDS sram_32b_256_1rw_sky130_spare_wen_dff

* spice ptx X{0} {1} sky130_fd_pr__nfet_01v8 m=1 w=0.36 l=0.15 pd=1.02 ps=1.02 as=0.14u ad=0.14u

* spice ptx X{0} {1} sky130_fd_pr__pfet_01v8 m=1 w=1.12 l=0.15 pd=2.54 ps=2.54 as=0.42u ad=0.42u

.SUBCKT sram_32b_256_1rw_sky130_pinv_16
+ A Z vdd gnd
* INPUT : A 
* OUTPUT: Z 
* POWER : vdd 
* GROUND: gnd 
* size: 1
Xpinv_pmos Z A vdd vdd sky130_fd_pr__pfet_01v8 m=1 w=1.12 l=0.15 pd=2.54 ps=2.54 as=0.42u ad=0.42u
Xpinv_nmos Z A gnd gnd sky130_fd_pr__nfet_01v8 m=1 w=0.36 l=0.15 pd=1.02 ps=1.02 as=0.14u ad=0.14u
.ENDS sram_32b_256_1rw_sky130_pinv_16

.SUBCKT sram_32b_256_1rw_sky130_delay_chain
+ in out vdd gnd
* INPUT : in 
* OUTPUT: out 
* POWER : vdd 
* GROUND: gnd 
* fanouts: [4, 4, 4, 4, 4, 4, 4, 4, 4]
Xdinv0
+ in dout_1 vdd gnd
+ sram_32b_256_1rw_sky130_pinv_16
Xdload_0_0
+ dout_1 n_0_0 vdd gnd
+ sram_32b_256_1rw_sky130_pinv_16
Xdload_0_1
+ dout_1 n_0_1 vdd gnd
+ sram_32b_256_1rw_sky130_pinv_16
Xdload_0_2
+ dout_1 n_0_2 vdd gnd
+ sram_32b_256_1rw_sky130_pinv_16
Xdload_0_3
+ dout_1 n_0_3 vdd gnd
+ sram_32b_256_1rw_sky130_pinv_16
Xdinv1
+ dout_1 dout_2 vdd gnd
+ sram_32b_256_1rw_sky130_pinv_16
Xdload_1_0
+ dout_2 n_1_0 vdd gnd
+ sram_32b_256_1rw_sky130_pinv_16
Xdload_1_1
+ dout_2 n_1_1 vdd gnd
+ sram_32b_256_1rw_sky130_pinv_16
Xdload_1_2
+ dout_2 n_1_2 vdd gnd
+ sram_32b_256_1rw_sky130_pinv_16
Xdload_1_3
+ dout_2 n_1_3 vdd gnd
+ sram_32b_256_1rw_sky130_pinv_16
Xdinv2
+ dout_2 dout_3 vdd gnd
+ sram_32b_256_1rw_sky130_pinv_16
Xdload_2_0
+ dout_3 n_2_0 vdd gnd
+ sram_32b_256_1rw_sky130_pinv_16
Xdload_2_1
+ dout_3 n_2_1 vdd gnd
+ sram_32b_256_1rw_sky130_pinv_16
Xdload_2_2
+ dout_3 n_2_2 vdd gnd
+ sram_32b_256_1rw_sky130_pinv_16
Xdload_2_3
+ dout_3 n_2_3 vdd gnd
+ sram_32b_256_1rw_sky130_pinv_16
Xdinv3
+ dout_3 dout_4 vdd gnd
+ sram_32b_256_1rw_sky130_pinv_16
Xdload_3_0
+ dout_4 n_3_0 vdd gnd
+ sram_32b_256_1rw_sky130_pinv_16
Xdload_3_1
+ dout_4 n_3_1 vdd gnd
+ sram_32b_256_1rw_sky130_pinv_16
Xdload_3_2
+ dout_4 n_3_2 vdd gnd
+ sram_32b_256_1rw_sky130_pinv_16
Xdload_3_3
+ dout_4 n_3_3 vdd gnd
+ sram_32b_256_1rw_sky130_pinv_16
Xdinv4
+ dout_4 dout_5 vdd gnd
+ sram_32b_256_1rw_sky130_pinv_16
Xdload_4_0
+ dout_5 n_4_0 vdd gnd
+ sram_32b_256_1rw_sky130_pinv_16
Xdload_4_1
+ dout_5 n_4_1 vdd gnd
+ sram_32b_256_1rw_sky130_pinv_16
Xdload_4_2
+ dout_5 n_4_2 vdd gnd
+ sram_32b_256_1rw_sky130_pinv_16
Xdload_4_3
+ dout_5 n_4_3 vdd gnd
+ sram_32b_256_1rw_sky130_pinv_16
Xdinv5
+ dout_5 dout_6 vdd gnd
+ sram_32b_256_1rw_sky130_pinv_16
Xdload_5_0
+ dout_6 n_5_0 vdd gnd
+ sram_32b_256_1rw_sky130_pinv_16
Xdload_5_1
+ dout_6 n_5_1 vdd gnd
+ sram_32b_256_1rw_sky130_pinv_16
Xdload_5_2
+ dout_6 n_5_2 vdd gnd
+ sram_32b_256_1rw_sky130_pinv_16
Xdload_5_3
+ dout_6 n_5_3 vdd gnd
+ sram_32b_256_1rw_sky130_pinv_16
Xdinv6
+ dout_6 dout_7 vdd gnd
+ sram_32b_256_1rw_sky130_pinv_16
Xdload_6_0
+ dout_7 n_6_0 vdd gnd
+ sram_32b_256_1rw_sky130_pinv_16
Xdload_6_1
+ dout_7 n_6_1 vdd gnd
+ sram_32b_256_1rw_sky130_pinv_16
Xdload_6_2
+ dout_7 n_6_2 vdd gnd
+ sram_32b_256_1rw_sky130_pinv_16
Xdload_6_3
+ dout_7 n_6_3 vdd gnd
+ sram_32b_256_1rw_sky130_pinv_16
Xdinv7
+ dout_7 dout_8 vdd gnd
+ sram_32b_256_1rw_sky130_pinv_16
Xdload_7_0
+ dout_8 n_7_0 vdd gnd
+ sram_32b_256_1rw_sky130_pinv_16
Xdload_7_1
+ dout_8 n_7_1 vdd gnd
+ sram_32b_256_1rw_sky130_pinv_16
Xdload_7_2
+ dout_8 n_7_2 vdd gnd
+ sram_32b_256_1rw_sky130_pinv_16
Xdload_7_3
+ dout_8 n_7_3 vdd gnd
+ sram_32b_256_1rw_sky130_pinv_16
Xdinv8
+ dout_8 out vdd gnd
+ sram_32b_256_1rw_sky130_pinv_16
Xdload_8_0
+ out n_8_0 vdd gnd
+ sram_32b_256_1rw_sky130_pinv_16
Xdload_8_1
+ out n_8_1 vdd gnd
+ sram_32b_256_1rw_sky130_pinv_16
Xdload_8_2
+ out n_8_2 vdd gnd
+ sram_32b_256_1rw_sky130_pinv_16
Xdload_8_3
+ out n_8_3 vdd gnd
+ sram_32b_256_1rw_sky130_pinv_16
.ENDS sram_32b_256_1rw_sky130_delay_chain

* spice ptx X{0} {1} sky130_fd_pr__pfet_01v8 m=46 w=2.0 l=0.15 pd=4.30 ps=4.30 as=0.75u ad=0.75u

* spice ptx X{0} {1} sky130_fd_pr__nfet_01v8 m=46 w=2.0 l=0.15 pd=4.30 ps=4.30 as=0.75u ad=0.75u

.SUBCKT sram_32b_256_1rw_sky130_pinv_10
+ A Z vdd gnd
* INPUT : A 
* OUTPUT: Z 
* POWER : vdd 
* GROUND: gnd 
* size: 85
Xpinv_pmos Z A vdd vdd sky130_fd_pr__pfet_01v8 m=46 w=2.0 l=0.15 pd=4.30 ps=4.30 as=0.75u ad=0.75u
Xpinv_nmos Z A gnd gnd sky130_fd_pr__nfet_01v8 m=46 w=2.0 l=0.15 pd=4.30 ps=4.30 as=0.75u ad=0.75u
.ENDS sram_32b_256_1rw_sky130_pinv_10

* spice ptx X{0} {1} sky130_fd_pr__nfet_01v8 m=16 w=2.0 l=0.15 pd=4.30 ps=4.30 as=0.75u ad=0.75u

* spice ptx X{0} {1} sky130_fd_pr__pfet_01v8 m=16 w=2.0 l=0.15 pd=4.30 ps=4.30 as=0.75u ad=0.75u

.SUBCKT sram_32b_256_1rw_sky130_pinv_9
+ A Z vdd gnd
* INPUT : A 
* OUTPUT: Z 
* POWER : vdd 
* GROUND: gnd 
* size: 28
Xpinv_pmos Z A vdd vdd sky130_fd_pr__pfet_01v8 m=16 w=2.0 l=0.15 pd=4.30 ps=4.30 as=0.75u ad=0.75u
Xpinv_nmos Z A gnd gnd sky130_fd_pr__nfet_01v8 m=16 w=2.0 l=0.15 pd=4.30 ps=4.30 as=0.75u ad=0.75u
.ENDS sram_32b_256_1rw_sky130_pinv_9

.SUBCKT sram_32b_256_1rw_sky130_pdriver_1
+ A Z vdd gnd
* INPUT : A 
* OUTPUT: Z 
* POWER : vdd 
* GROUND: gnd 
* sizes: [28, 85]
Xbuf_inv1
+ A Zb1_int vdd gnd
+ sram_32b_256_1rw_sky130_pinv_9
Xbuf_inv2
+ Zb1_int Z vdd gnd
+ sram_32b_256_1rw_sky130_pinv_10
.ENDS sram_32b_256_1rw_sky130_pdriver_1

* spice ptx X{0} {1} sky130_fd_pr__nfet_01v8 m=40 w=2.0 l=0.15 pd=4.30 ps=4.30 as=0.75u ad=0.75u

* spice ptx X{0} {1} sky130_fd_pr__pfet_01v8 m=40 w=2.0 l=0.15 pd=4.30 ps=4.30 as=0.75u ad=0.75u

.SUBCKT sram_32b_256_1rw_sky130_pinv_8
+ A Z vdd gnd
* INPUT : A 
* OUTPUT: Z 
* POWER : vdd 
* GROUND: gnd 
* size: 73
Xpinv_pmos Z A vdd vdd sky130_fd_pr__pfet_01v8 m=40 w=2.0 l=0.15 pd=4.30 ps=4.30 as=0.75u ad=0.75u
Xpinv_nmos Z A gnd gnd sky130_fd_pr__nfet_01v8 m=40 w=2.0 l=0.15 pd=4.30 ps=4.30 as=0.75u ad=0.75u
.ENDS sram_32b_256_1rw_sky130_pinv_8

* spice ptx X{0} {1} sky130_fd_pr__pfet_01v8 m=5 w=2.0 l=0.15 pd=4.30 ps=4.30 as=0.75u ad=0.75u

* spice ptx X{0} {1} sky130_fd_pr__nfet_01v8 m=5 w=1.68 l=0.15 pd=3.66 ps=3.66 as=0.63u ad=0.63u

.SUBCKT sram_32b_256_1rw_sky130_pinv_6
+ A Z vdd gnd
* INPUT : A 
* OUTPUT: Z 
* POWER : vdd 
* GROUND: gnd 
* size: 8
Xpinv_pmos Z A vdd vdd sky130_fd_pr__pfet_01v8 m=5 w=2.0 l=0.15 pd=4.30 ps=4.30 as=0.75u ad=0.75u
Xpinv_nmos Z A gnd gnd sky130_fd_pr__nfet_01v8 m=5 w=1.68 l=0.15 pd=3.66 ps=3.66 as=0.63u ad=0.63u
.ENDS sram_32b_256_1rw_sky130_pinv_6

.SUBCKT sram_32b_256_1rw_sky130_pinv_4
+ A Z vdd gnd
* INPUT : A 
* OUTPUT: Z 
* POWER : vdd 
* GROUND: gnd 
* size: 1
Xpinv_pmos Z A vdd vdd sky130_fd_pr__pfet_01v8 m=1 w=1.12 l=0.15 pd=2.54 ps=2.54 as=0.42u ad=0.42u
Xpinv_nmos Z A gnd gnd sky130_fd_pr__nfet_01v8 m=1 w=0.36 l=0.15 pd=1.02 ps=1.02 as=0.14u ad=0.14u
.ENDS sram_32b_256_1rw_sky130_pinv_4

* spice ptx X{0} {1} sky130_fd_pr__pfet_01v8 m=2 w=2.0 l=0.15 pd=4.30 ps=4.30 as=0.75u ad=0.75u

* spice ptx X{0} {1} sky130_fd_pr__nfet_01v8 m=2 w=1.26 l=0.15 pd=2.82 ps=2.82 as=0.47u ad=0.47u

.SUBCKT sram_32b_256_1rw_sky130_pinv_5
+ A Z vdd gnd
* INPUT : A 
* OUTPUT: Z 
* POWER : vdd 
* GROUND: gnd 
* size: 3
Xpinv_pmos Z A vdd vdd sky130_fd_pr__pfet_01v8 m=2 w=2.0 l=0.15 pd=4.30 ps=4.30 as=0.75u ad=0.75u
Xpinv_nmos Z A gnd gnd sky130_fd_pr__nfet_01v8 m=2 w=1.26 l=0.15 pd=2.82 ps=2.82 as=0.47u ad=0.47u
.ENDS sram_32b_256_1rw_sky130_pinv_5

* spice ptx X{0} {1} sky130_fd_pr__pfet_01v8 m=13 w=2.0 l=0.15 pd=4.30 ps=4.30 as=0.75u ad=0.75u

* spice ptx X{0} {1} sky130_fd_pr__nfet_01v8 m=13 w=2.0 l=0.15 pd=4.30 ps=4.30 as=0.75u ad=0.75u

.SUBCKT sram_32b_256_1rw_sky130_pinv_7
+ A Z vdd gnd
* INPUT : A 
* OUTPUT: Z 
* POWER : vdd 
* GROUND: gnd 
* size: 24
Xpinv_pmos Z A vdd vdd sky130_fd_pr__pfet_01v8 m=13 w=2.0 l=0.15 pd=4.30 ps=4.30 as=0.75u ad=0.75u
Xpinv_nmos Z A gnd gnd sky130_fd_pr__nfet_01v8 m=13 w=2.0 l=0.15 pd=4.30 ps=4.30 as=0.75u ad=0.75u
.ENDS sram_32b_256_1rw_sky130_pinv_7

.SUBCKT sram_32b_256_1rw_sky130_pdriver_0
+ A Z vdd gnd
* INPUT : A 
* OUTPUT: Z 
* POWER : vdd 
* GROUND: gnd 
* sizes: [1, 1, 3, 8, 24, 73]
Xbuf_inv1
+ A Zb1_int vdd gnd
+ sram_32b_256_1rw_sky130_pinv_4
Xbuf_inv2
+ Zb1_int Zb2_int vdd gnd
+ sram_32b_256_1rw_sky130_pinv_4
Xbuf_inv3
+ Zb2_int Zb3_int vdd gnd
+ sram_32b_256_1rw_sky130_pinv_5
Xbuf_inv4
+ Zb3_int Zb4_int vdd gnd
+ sram_32b_256_1rw_sky130_pinv_6
Xbuf_inv5
+ Zb4_int Zb5_int vdd gnd
+ sram_32b_256_1rw_sky130_pinv_7
Xbuf_inv6
+ Zb5_int Z vdd gnd
+ sram_32b_256_1rw_sky130_pinv_8
.ENDS sram_32b_256_1rw_sky130_pdriver_0

* spice ptx X{0} {1} sky130_fd_pr__pfet_01v8 m=1 w=1.12 l=0.15 pd=2.54 ps=2.54 as=0.42u ad=0.42u

* spice ptx X{0} {1} sky130_fd_pr__nfet_01v8 m=1 w=0.74 l=0.15 pd=1.78 ps=1.78 as=0.28u ad=0.28u

* spice ptx X{0} {1} sky130_fd_pr__nfet_01v8 m=1 w=0.74 l=0.15 pd=1.78 ps=1.78 as=0.28u ad=0.28u

* spice ptx X{0} {1} sky130_fd_pr__nfet_01v8 m=1 w=0.74 l=0.15 pd=1.78 ps=1.78 as=0.28u ad=0.28u

.SUBCKT sram_32b_256_1rw_sky130_pnand3
+ A B C Z vdd gnd
* INPUT : A 
* INPUT : B 
* INPUT : C 
* OUTPUT: Z 
* POWER : vdd 
* GROUND: gnd 
* size: 1
Xpnand3_pmos1 vdd A Z vdd sky130_fd_pr__pfet_01v8 m=1 w=1.12 l=0.15 pd=2.54 ps=2.54 as=0.42u ad=0.42u
Xpnand3_pmos2 Z B vdd vdd sky130_fd_pr__pfet_01v8 m=1 w=1.12 l=0.15 pd=2.54 ps=2.54 as=0.42u ad=0.42u
Xpnand3_pmos3 Z C vdd vdd sky130_fd_pr__pfet_01v8 m=1 w=1.12 l=0.15 pd=2.54 ps=2.54 as=0.42u ad=0.42u
Xpnand3_nmos1 Z C net1 gnd sky130_fd_pr__nfet_01v8 m=1 w=0.74 l=0.15 pd=1.78 ps=1.78 as=0.28u ad=0.28u
Xpnand3_nmos2 net1 B net2 gnd sky130_fd_pr__nfet_01v8 m=1 w=0.74 l=0.15 pd=1.78 ps=1.78 as=0.28u ad=0.28u
Xpnand3_nmos3 net2 A gnd gnd sky130_fd_pr__nfet_01v8 m=1 w=0.74 l=0.15 pd=1.78 ps=1.78 as=0.28u ad=0.28u
.ENDS sram_32b_256_1rw_sky130_pnand3

* spice ptx X{0} {1} sky130_fd_pr__nfet_01v8 m=18 w=2.0 l=0.15 pd=4.30 ps=4.30 as=0.75u ad=0.75u

* spice ptx X{0} {1} sky130_fd_pr__pfet_01v8 m=18 w=2.0 l=0.15 pd=4.30 ps=4.30 as=0.75u ad=0.75u

.SUBCKT sram_32b_256_1rw_sky130_pinv_12
+ A Z vdd gnd
* INPUT : A 
* OUTPUT: Z 
* POWER : vdd 
* GROUND: gnd 
* size: 33
Xpinv_pmos Z A vdd vdd sky130_fd_pr__pfet_01v8 m=18 w=2.0 l=0.15 pd=4.30 ps=4.30 as=0.75u ad=0.75u
Xpinv_nmos Z A gnd gnd sky130_fd_pr__nfet_01v8 m=18 w=2.0 l=0.15 pd=4.30 ps=4.30 as=0.75u ad=0.75u
.ENDS sram_32b_256_1rw_sky130_pinv_12

.SUBCKT sram_32b_256_1rw_sky130_pdriver_3
+ A Z vdd gnd
* INPUT : A 
* OUTPUT: Z 
* POWER : vdd 
* GROUND: gnd 
* sizes: [33]
Xbuf_inv1
+ A Z vdd gnd
+ sram_32b_256_1rw_sky130_pinv_12
.ENDS sram_32b_256_1rw_sky130_pdriver_3

.SUBCKT sram_32b_256_1rw_sky130_pand3_0
+ A B C Z vdd gnd
* INPUT : A 
* INPUT : B 
* INPUT : C 
* OUTPUT: Z 
* POWER : vdd 
* GROUND: gnd 
* size: 33
Xpand3_nand
+ A B C zb_int vdd gnd
+ sram_32b_256_1rw_sky130_pnand3
Xpand3_inv
+ zb_int Z vdd gnd
+ sram_32b_256_1rw_sky130_pdriver_3
.ENDS sram_32b_256_1rw_sky130_pand3_0

* spice ptx X{0} {1} sky130_fd_pr__nfet_01v8 m=3 w=1.68 l=0.15 pd=3.66 ps=3.66 as=0.63u ad=0.63u

* spice ptx X{0} {1} sky130_fd_pr__pfet_01v8 m=3 w=1.68 l=0.15 pd=3.66 ps=3.66 as=0.63u ad=0.63u

.SUBCKT sram_32b_256_1rw_sky130_pinv_0
+ A Z vdd gnd
* INPUT : A 
* OUTPUT: Z 
* POWER : vdd 
* GROUND: gnd 
* size: 4
Xpinv_pmos Z A vdd vdd sky130_fd_pr__pfet_01v8 m=3 w=1.68 l=0.15 pd=3.66 ps=3.66 as=0.63u ad=0.63u
Xpinv_nmos Z A gnd gnd sky130_fd_pr__nfet_01v8 m=3 w=1.68 l=0.15 pd=3.66 ps=3.66 as=0.63u ad=0.63u
.ENDS sram_32b_256_1rw_sky130_pinv_0

* spice ptx X{0} {1} sky130_fd_pr__pfet_01v8 m=2 w=1.26 l=0.15 pd=2.82 ps=2.82 as=0.47u ad=0.47u

* spice ptx X{0} {1} sky130_fd_pr__nfet_01v8 m=2 w=0.74 l=0.15 pd=1.78 ps=1.78 as=0.28u ad=0.28u

.SUBCKT sram_32b_256_1rw_sky130_pinv
+ A Z vdd gnd
* INPUT : A 
* OUTPUT: Z 
* POWER : vdd 
* GROUND: gnd 
* size: 2
Xpinv_pmos Z A vdd vdd sky130_fd_pr__pfet_01v8 m=2 w=1.26 l=0.15 pd=2.82 ps=2.82 as=0.47u ad=0.47u
Xpinv_nmos Z A gnd gnd sky130_fd_pr__nfet_01v8 m=2 w=0.74 l=0.15 pd=1.78 ps=1.78 as=0.28u ad=0.28u
.ENDS sram_32b_256_1rw_sky130_pinv

.SUBCKT sram_32b_256_1rw_sky130_dff_buf_0
+ D Q Qb clk vdd gnd
* INPUT : D 
* OUTPUT: Q 
* OUTPUT: Qb 
* INPUT : clk 
* POWER : vdd 
* GROUND: gnd 
* inv1: 2 inv2: 4
Xdff_buf_dff
+ D qint clk vdd gnd
+ sky130_fd_bd_sram__openram_dff
Xdff_buf_inv1
+ qint Qb vdd gnd
+ sram_32b_256_1rw_sky130_pinv
Xdff_buf_inv2
+ Qb Q vdd gnd
+ sram_32b_256_1rw_sky130_pinv_0
.ENDS sram_32b_256_1rw_sky130_dff_buf_0

.SUBCKT sram_32b_256_1rw_sky130_dff_buf_array
+ din_0 din_1 dout_0 dout_bar_0 dout_1 dout_bar_1 clk vdd gnd
* INPUT : din_0 
* INPUT : din_1 
* OUTPUT: dout_0 
* OUTPUT: dout_bar_0 
* OUTPUT: dout_1 
* OUTPUT: dout_bar_1 
* INPUT : clk 
* POWER : vdd 
* GROUND: gnd 
* rows: 2 cols: 1
* inv1: 2 inv2: 4
Xdff_r0_c0
+ din_0 dout_0 dout_bar_0 clk vdd gnd
+ sram_32b_256_1rw_sky130_dff_buf_0
Xdff_r1_c0
+ din_1 dout_1 dout_bar_1 clk vdd gnd
+ sram_32b_256_1rw_sky130_dff_buf_0
.ENDS sram_32b_256_1rw_sky130_dff_buf_array

.SUBCKT sram_32b_256_1rw_sky130_pnand2
+ A B Z vdd gnd
* INPUT : A 
* INPUT : B 
* OUTPUT: Z 
* POWER : vdd 
* GROUND: gnd 
* size: 1
Xpnand2_pmos1 vdd A Z vdd sky130_fd_pr__pfet_01v8 m=1 w=1.12 l=0.15 pd=2.54 ps=2.54 as=0.42u ad=0.42u
Xpnand2_pmos2 Z B vdd vdd sky130_fd_pr__pfet_01v8 m=1 w=1.12 l=0.15 pd=2.54 ps=2.54 as=0.42u ad=0.42u
Xpnand2_nmos1 Z B net1 gnd sky130_fd_pr__nfet_01v8 m=1 w=0.74 l=0.15 pd=1.78 ps=1.78 as=0.28u ad=0.28u
Xpnand2_nmos2 net1 A gnd gnd sky130_fd_pr__nfet_01v8 m=1 w=0.74 l=0.15 pd=1.78 ps=1.78 as=0.28u ad=0.28u
.ENDS sram_32b_256_1rw_sky130_pnand2

* spice ptx X{0} {1} sky130_fd_pr__pfet_01v8 m=7 w=2.0 l=0.15 pd=4.30 ps=4.30 as=0.75u ad=0.75u

* spice ptx X{0} {1} sky130_fd_pr__nfet_01v8 m=7 w=1.68 l=0.15 pd=3.66 ps=3.66 as=0.63u ad=0.63u

.SUBCKT sram_32b_256_1rw_sky130_pinv_1
+ A Z vdd gnd
* INPUT : A 
* OUTPUT: Z 
* POWER : vdd 
* GROUND: gnd 
* size: 12
Xpinv_pmos Z A vdd vdd sky130_fd_pr__pfet_01v8 m=7 w=2.0 l=0.15 pd=4.30 ps=4.30 as=0.75u ad=0.75u
Xpinv_nmos Z A gnd gnd sky130_fd_pr__nfet_01v8 m=7 w=1.68 l=0.15 pd=3.66 ps=3.66 as=0.63u ad=0.63u
.ENDS sram_32b_256_1rw_sky130_pinv_1

.SUBCKT sram_32b_256_1rw_sky130_pdriver
+ A Z vdd gnd
* INPUT : A 
* OUTPUT: Z 
* POWER : vdd 
* GROUND: gnd 
* sizes: [12]
Xbuf_inv1
+ A Z vdd gnd
+ sram_32b_256_1rw_sky130_pinv_1
.ENDS sram_32b_256_1rw_sky130_pdriver

.SUBCKT sram_32b_256_1rw_sky130_pand2
+ A B Z vdd gnd
* INPUT : A 
* INPUT : B 
* OUTPUT: Z 
* POWER : vdd 
* GROUND: gnd 
* size: 12
Xpand2_nand
+ A B zb_int vdd gnd
+ sram_32b_256_1rw_sky130_pnand2
Xpand2_inv
+ zb_int Z vdd gnd
+ sram_32b_256_1rw_sky130_pdriver
.ENDS sram_32b_256_1rw_sky130_pand2

* spice ptx X{0} {1} sky130_fd_pr__pfet_01v8 m=6 w=2.0 l=0.15 pd=4.30 ps=4.30 as=0.75u ad=0.75u

* spice ptx X{0} {1} sky130_fd_pr__nfet_01v8 m=6 w=2.0 l=0.15 pd=4.30 ps=4.30 as=0.75u ad=0.75u

.SUBCKT sram_32b_256_1rw_sky130_pinv_15
+ A Z vdd gnd
* INPUT : A 
* OUTPUT: Z 
* POWER : vdd 
* GROUND: gnd 
* size: 11
Xpinv_pmos Z A vdd vdd sky130_fd_pr__pfet_01v8 m=6 w=2.0 l=0.15 pd=4.30 ps=4.30 as=0.75u ad=0.75u
Xpinv_nmos Z A gnd gnd sky130_fd_pr__nfet_01v8 m=6 w=2.0 l=0.15 pd=4.30 ps=4.30 as=0.75u ad=0.75u
.ENDS sram_32b_256_1rw_sky130_pinv_15

.SUBCKT sram_32b_256_1rw_sky130_pinv_14
+ A Z vdd gnd
* INPUT : A 
* OUTPUT: Z 
* POWER : vdd 
* GROUND: gnd 
* size: 4
Xpinv_pmos Z A vdd vdd sky130_fd_pr__pfet_01v8 m=3 w=1.68 l=0.15 pd=3.66 ps=3.66 as=0.63u ad=0.63u
Xpinv_nmos Z A gnd gnd sky130_fd_pr__nfet_01v8 m=3 w=1.68 l=0.15 pd=3.66 ps=3.66 as=0.63u ad=0.63u
.ENDS sram_32b_256_1rw_sky130_pinv_14

.SUBCKT sram_32b_256_1rw_sky130_pdriver_4
+ A Z vdd gnd
* INPUT : A 
* OUTPUT: Z 
* POWER : vdd 
* GROUND: gnd 
* sizes: [1, 1, 4, 11]
Xbuf_inv1
+ A Zb1_int vdd gnd
+ sram_32b_256_1rw_sky130_pinv_4
Xbuf_inv2
+ Zb1_int Zb2_int vdd gnd
+ sram_32b_256_1rw_sky130_pinv_4
Xbuf_inv3
+ Zb2_int Zb3_int vdd gnd
+ sram_32b_256_1rw_sky130_pinv_14
Xbuf_inv4
+ Zb3_int Z vdd gnd
+ sram_32b_256_1rw_sky130_pinv_15
.ENDS sram_32b_256_1rw_sky130_pdriver_4

.SUBCKT sram_32b_256_1rw_sky130_pnand2_0
+ A B Z vdd gnd
* INPUT : A 
* INPUT : B 
* OUTPUT: Z 
* POWER : vdd 
* GROUND: gnd 
* size: 1
Xpnand2_pmos1 vdd A Z vdd sky130_fd_pr__pfet_01v8 m=1 w=1.12 l=0.15 pd=2.54 ps=2.54 as=0.42u ad=0.42u
Xpnand2_pmos2 Z B vdd vdd sky130_fd_pr__pfet_01v8 m=1 w=1.12 l=0.15 pd=2.54 ps=2.54 as=0.42u ad=0.42u
Xpnand2_nmos1 Z B net1 gnd sky130_fd_pr__nfet_01v8 m=1 w=0.74 l=0.15 pd=1.78 ps=1.78 as=0.28u ad=0.28u
Xpnand2_nmos2 net1 A gnd gnd sky130_fd_pr__nfet_01v8 m=1 w=0.74 l=0.15 pd=1.78 ps=1.78 as=0.28u ad=0.28u
.ENDS sram_32b_256_1rw_sky130_pnand2_0

* spice ptx X{0} {1} sky130_fd_pr__nfet_01v8 m=22 w=2.0 l=0.15 pd=4.30 ps=4.30 as=0.75u ad=0.75u

* spice ptx X{0} {1} sky130_fd_pr__pfet_01v8 m=22 w=2.0 l=0.15 pd=4.30 ps=4.30 as=0.75u ad=0.75u

.SUBCKT sram_32b_256_1rw_sky130_pinv_11
+ A Z vdd gnd
* INPUT : A 
* OUTPUT: Z 
* POWER : vdd 
* GROUND: gnd 
* size: 40
Xpinv_pmos Z A vdd vdd sky130_fd_pr__pfet_01v8 m=22 w=2.0 l=0.15 pd=4.30 ps=4.30 as=0.75u ad=0.75u
Xpinv_nmos Z A gnd gnd sky130_fd_pr__nfet_01v8 m=22 w=2.0 l=0.15 pd=4.30 ps=4.30 as=0.75u ad=0.75u
.ENDS sram_32b_256_1rw_sky130_pinv_11

.SUBCKT sram_32b_256_1rw_sky130_pdriver_2
+ A Z vdd gnd
* INPUT : A 
* OUTPUT: Z 
* POWER : vdd 
* GROUND: gnd 
* sizes: [40]
Xbuf_inv1
+ A Z vdd gnd
+ sram_32b_256_1rw_sky130_pinv_11
.ENDS sram_32b_256_1rw_sky130_pdriver_2

.SUBCKT sram_32b_256_1rw_sky130_pand3
+ A B C Z vdd gnd
* INPUT : A 
* INPUT : B 
* INPUT : C 
* OUTPUT: Z 
* POWER : vdd 
* GROUND: gnd 
* size: 40
Xpand3_nand
+ A B C zb_int vdd gnd
+ sram_32b_256_1rw_sky130_pnand3
Xpand3_inv
+ zb_int Z vdd gnd
+ sram_32b_256_1rw_sky130_pdriver_2
.ENDS sram_32b_256_1rw_sky130_pand3

.SUBCKT sram_32b_256_1rw_sky130_pinv_13
+ A Z vdd gnd
* INPUT : A 
* OUTPUT: Z 
* POWER : vdd 
* GROUND: gnd 
* size: 1
Xpinv_pmos Z A vdd vdd sky130_fd_pr__pfet_01v8 m=1 w=1.12 l=0.15 pd=2.54 ps=2.54 as=0.42u ad=0.42u
Xpinv_nmos Z A gnd gnd sky130_fd_pr__nfet_01v8 m=1 w=0.36 l=0.15 pd=1.02 ps=1.02 as=0.14u ad=0.14u
.ENDS sram_32b_256_1rw_sky130_pinv_13

.SUBCKT sram_32b_256_1rw_sky130_control_logic_rw
+ csb web clk rbl_bl s_en w_en p_en_bar wl_en clk_buf vdd gnd
* INPUT : csb 
* INPUT : web 
* INPUT : clk 
* INPUT : rbl_bl 
* OUTPUT: s_en 
* OUTPUT: w_en 
* OUTPUT: p_en_bar 
* OUTPUT: wl_en 
* OUTPUT: clk_buf 
* POWER : vdd 
* GROUND: gnd 
* num_rows: 257
* words_per_row: 1
* word_size 32
Xctrl_dffs
+ csb web cs_bar cs we_bar we clk_buf vdd gnd
+ sram_32b_256_1rw_sky130_dff_buf_array
Xclkbuf
+ clk clk_buf vdd gnd
+ sram_32b_256_1rw_sky130_pdriver_0
Xinv_clk_bar
+ clk_buf clk_bar vdd gnd
+ sram_32b_256_1rw_sky130_pinv_13
Xand2_gated_clk_bar
+ clk_bar cs gated_clk_bar vdd gnd
+ sram_32b_256_1rw_sky130_pand2
Xand2_gated_clk_buf
+ clk_buf cs gated_clk_buf vdd gnd
+ sram_32b_256_1rw_sky130_pand2
Xbuf_wl_en
+ gated_clk_bar wl_en vdd gnd
+ sram_32b_256_1rw_sky130_pdriver_1
Xrbl_bl_delay_inv
+ rbl_bl_delay rbl_bl_delay_bar vdd gnd
+ sram_32b_256_1rw_sky130_pinv_13
Xw_en_and
+ we rbl_bl_delay_bar gated_clk_bar w_en vdd gnd
+ sram_32b_256_1rw_sky130_pand3
Xbuf_s_en_and
+ rbl_bl_delay gated_clk_bar we_bar s_en vdd gnd
+ sram_32b_256_1rw_sky130_pand3_0
Xdelay_chain
+ rbl_bl rbl_bl_delay vdd gnd
+ sram_32b_256_1rw_sky130_delay_chain
Xnand_p_en_bar
+ gated_clk_buf rbl_bl_delay p_en_bar_unbuf vdd gnd
+ sram_32b_256_1rw_sky130_pnand2_0
Xbuf_p_en_bar
+ p_en_bar_unbuf p_en_bar vdd gnd
+ sram_32b_256_1rw_sky130_pdriver_4
.ENDS sram_32b_256_1rw_sky130_control_logic_rw

.SUBCKT sram_32b_256_1rw_sky130_data_dff
+ din_0 din_1 din_2 din_3 din_4 din_5 din_6 din_7 din_8 din_9 din_10
+ din_11 din_12 din_13 din_14 din_15 din_16 din_17 din_18 din_19 din_20
+ din_21 din_22 din_23 din_24 din_25 din_26 din_27 din_28 din_29 din_30
+ din_31 din_32 dout_0 dout_1 dout_2 dout_3 dout_4 dout_5 dout_6 dout_7
+ dout_8 dout_9 dout_10 dout_11 dout_12 dout_13 dout_14 dout_15 dout_16
+ dout_17 dout_18 dout_19 dout_20 dout_21 dout_22 dout_23 dout_24
+ dout_25 dout_26 dout_27 dout_28 dout_29 dout_30 dout_31 dout_32 clk
+ vdd gnd
* INPUT : din_0 
* INPUT : din_1 
* INPUT : din_2 
* INPUT : din_3 
* INPUT : din_4 
* INPUT : din_5 
* INPUT : din_6 
* INPUT : din_7 
* INPUT : din_8 
* INPUT : din_9 
* INPUT : din_10 
* INPUT : din_11 
* INPUT : din_12 
* INPUT : din_13 
* INPUT : din_14 
* INPUT : din_15 
* INPUT : din_16 
* INPUT : din_17 
* INPUT : din_18 
* INPUT : din_19 
* INPUT : din_20 
* INPUT : din_21 
* INPUT : din_22 
* INPUT : din_23 
* INPUT : din_24 
* INPUT : din_25 
* INPUT : din_26 
* INPUT : din_27 
* INPUT : din_28 
* INPUT : din_29 
* INPUT : din_30 
* INPUT : din_31 
* INPUT : din_32 
* OUTPUT: dout_0 
* OUTPUT: dout_1 
* OUTPUT: dout_2 
* OUTPUT: dout_3 
* OUTPUT: dout_4 
* OUTPUT: dout_5 
* OUTPUT: dout_6 
* OUTPUT: dout_7 
* OUTPUT: dout_8 
* OUTPUT: dout_9 
* OUTPUT: dout_10 
* OUTPUT: dout_11 
* OUTPUT: dout_12 
* OUTPUT: dout_13 
* OUTPUT: dout_14 
* OUTPUT: dout_15 
* OUTPUT: dout_16 
* OUTPUT: dout_17 
* OUTPUT: dout_18 
* OUTPUT: dout_19 
* OUTPUT: dout_20 
* OUTPUT: dout_21 
* OUTPUT: dout_22 
* OUTPUT: dout_23 
* OUTPUT: dout_24 
* OUTPUT: dout_25 
* OUTPUT: dout_26 
* OUTPUT: dout_27 
* OUTPUT: dout_28 
* OUTPUT: dout_29 
* OUTPUT: dout_30 
* OUTPUT: dout_31 
* OUTPUT: dout_32 
* INPUT : clk 
* POWER : vdd 
* GROUND: gnd 
* rows: 1 cols: 33
Xdff_r0_c0
+ din_0 dout_0 CLK VDD GND
+ sky130_fd_bd_sram__openram_dff
Xdff_r0_c1
+ din_1 dout_1 CLK VDD GND
+ sky130_fd_bd_sram__openram_dff
Xdff_r0_c2
+ din_2 dout_2 CLK VDD GND
+ sky130_fd_bd_sram__openram_dff
Xdff_r0_c3
+ din_3 dout_3 CLK VDD GND
+ sky130_fd_bd_sram__openram_dff
Xdff_r0_c4
+ din_4 dout_4 CLK VDD GND
+ sky130_fd_bd_sram__openram_dff
Xdff_r0_c5
+ din_5 dout_5 CLK VDD GND
+ sky130_fd_bd_sram__openram_dff
Xdff_r0_c6
+ din_6 dout_6 CLK VDD GND
+ sky130_fd_bd_sram__openram_dff
Xdff_r0_c7
+ din_7 dout_7 CLK VDD GND
+ sky130_fd_bd_sram__openram_dff
Xdff_r0_c8
+ din_8 dout_8 CLK VDD GND
+ sky130_fd_bd_sram__openram_dff
Xdff_r0_c9
+ din_9 dout_9 CLK VDD GND
+ sky130_fd_bd_sram__openram_dff
Xdff_r0_c10
+ din_10 dout_10 CLK VDD GND
+ sky130_fd_bd_sram__openram_dff
Xdff_r0_c11
+ din_11 dout_11 CLK VDD GND
+ sky130_fd_bd_sram__openram_dff
Xdff_r0_c12
+ din_12 dout_12 CLK VDD GND
+ sky130_fd_bd_sram__openram_dff
Xdff_r0_c13
+ din_13 dout_13 CLK VDD GND
+ sky130_fd_bd_sram__openram_dff
Xdff_r0_c14
+ din_14 dout_14 CLK VDD GND
+ sky130_fd_bd_sram__openram_dff
Xdff_r0_c15
+ din_15 dout_15 CLK VDD GND
+ sky130_fd_bd_sram__openram_dff
Xdff_r0_c16
+ din_16 dout_16 CLK VDD GND
+ sky130_fd_bd_sram__openram_dff
Xdff_r0_c17
+ din_17 dout_17 CLK VDD GND
+ sky130_fd_bd_sram__openram_dff
Xdff_r0_c18
+ din_18 dout_18 CLK VDD GND
+ sky130_fd_bd_sram__openram_dff
Xdff_r0_c19
+ din_19 dout_19 CLK VDD GND
+ sky130_fd_bd_sram__openram_dff
Xdff_r0_c20
+ din_20 dout_20 CLK VDD GND
+ sky130_fd_bd_sram__openram_dff
Xdff_r0_c21
+ din_21 dout_21 CLK VDD GND
+ sky130_fd_bd_sram__openram_dff
Xdff_r0_c22
+ din_22 dout_22 CLK VDD GND
+ sky130_fd_bd_sram__openram_dff
Xdff_r0_c23
+ din_23 dout_23 CLK VDD GND
+ sky130_fd_bd_sram__openram_dff
Xdff_r0_c24
+ din_24 dout_24 CLK VDD GND
+ sky130_fd_bd_sram__openram_dff
Xdff_r0_c25
+ din_25 dout_25 CLK VDD GND
+ sky130_fd_bd_sram__openram_dff
Xdff_r0_c26
+ din_26 dout_26 CLK VDD GND
+ sky130_fd_bd_sram__openram_dff
Xdff_r0_c27
+ din_27 dout_27 CLK VDD GND
+ sky130_fd_bd_sram__openram_dff
Xdff_r0_c28
+ din_28 dout_28 CLK VDD GND
+ sky130_fd_bd_sram__openram_dff
Xdff_r0_c29
+ din_29 dout_29 CLK VDD GND
+ sky130_fd_bd_sram__openram_dff
Xdff_r0_c30
+ din_30 dout_30 CLK VDD GND
+ sky130_fd_bd_sram__openram_dff
Xdff_r0_c31
+ din_31 dout_31 CLK VDD GND
+ sky130_fd_bd_sram__openram_dff
Xdff_r0_c32
+ din_32 dout_32 CLK VDD GND
+ sky130_fd_bd_sram__openram_dff
.ENDS sram_32b_256_1rw_sky130_data_dff
* NGSPICE file created from sky130_fd_bd_sram__openram_sp_cell_opt1a_replica.ext - technology: sky130A

.subckt sky130_fd_bd_sram__openram_sp_cell_opt1a_replica BL BR VGND VPWR VPB VNB WL
X0 VPWR WL BR VNB sky130_fd_pr__special_nfet_pass ad=4.375e+10p pd=920000u as=1.68e+10p ps=520000u w=140000u l=150000u
X1 Q VPWR VGND VNB sky130_fd_pr__special_nfet_latch ad=1.56e+11p pd=2.38e+06u as=8.08e+10p ps=1.28e+06u w=210000u l=150000u
X2 BL WL Q VNB sky130_fd_pr__special_nfet_pass ad=1.68e+10p pd=520000u as=4.25e+10p ps=920000u w=140000u l=150000u
*X3 Q WL Q VPB sky130_fd_pr__special_pfet_pass ad=3.5e+10p pd=780000u as=0p ps=0u w=70000u l=95000u
*X4 VPWR WL VPWR VPB sky130_fd_pr__special_pfet_pass ad=9.72e+10p pd=1.86e+06u as=0p ps=0u w=70000u l=95000u
X5 VPWR Q VPWR VPB sky130_fd_pr__special_pfet_pass ad=0p pd=0u as=0p ps=0u w=140000u l=150000u
X6 Q VPWR VPWR VPB sky130_fd_pr__special_pfet_pass ad=0p pd=0u as=0p ps=0u w=140000u l=150000u
X7 VGND Q VPWR VNB sky130_fd_pr__special_nfet_latch ad=0p pd=0u as=0p ps=0u w=210000u l=150000u
.ends
* NGSPICE file created from sky130_fd_bd_sram__sram_sp_colenda.ext - technology: sky130A

.subckt sky130_fd_bd_sram__sram_sp_colenda bl br vdd gnd vpb vnb gate
*X0 br gate br vnb sky130_fd_pr__special_nfet_pass w=0.065u l=0.17u
.ends

* NGSPICE file created from sky130_fd_bd_sram__openram_sp_cell_opt1_replica.ext - technology: sky130A

.subckt sky130_fd_bd_sram__openram_sp_cell_opt1_replica BL BR VGND VPWR VPB VNB WL
X0 VPWR WL BR VNB sky130_fd_pr__special_nfet_pass ad=4.375e+10p pd=920000u as=1.68e+10p ps=520000u w=140000u l=150000u
X1 Q VPWR VGND VNB sky130_fd_pr__special_nfet_latch ad=1.56e+11p pd=2.38e+06u as=8.08e+10p ps=1.28e+06u w=210000u l=150000u
X2 BL WL Q VNB sky130_fd_pr__special_nfet_pass ad=1.68e+10p pd=520000u as=4.25e+10p ps=920000u w=140000u l=150000u
*X3 Q WL Q VPB sky130_fd_pr__special_pfet_pass ad=3.5e+10p pd=780000u as=0p ps=0u w=70000u l=95000u
*X4 VPWR WL VPWR VPB sky130_fd_pr__special_pfet_pass ad=9.72e+10p pd=1.86e+06u as=0p ps=0u w=70000u l=95000u
X5 VPWR Q VPWR VPB sky130_fd_pr__special_pfet_pass ad=0p pd=0u as=0p ps=0u w=140000u l=150000u
X6 Q VPWR VPWR VPB sky130_fd_pr__special_pfet_pass ad=0p pd=0u as=0p ps=0u w=140000u l=150000u
X7 VGND Q VPWR VNB sky130_fd_pr__special_nfet_latch ad=0p pd=0u as=0p ps=0u w=210000u l=150000u
.ends
* NGSPICE file created from sky130_fd_bd_sram__sram_sp_colenda_p_cent.ext - technology: sky130A

.subckt sky130_fd_bd_sram__sram_sp_colenda_p_cent VGND VPB VNB
.ends
* NGSPICE file created from sky130_fd_bd_sram__sram_sp_wlstrap_p.ext - technology: sky130A

.subckt sky130_fd_bd_sram__sram_sp_wlstrap_p VGND
.ends
* NGSPICE file created from sky130_fd_bd_sram__sram_sp_colend_p_cent.ext - technology: sky130A

.subckt sky130_fd_bd_sram__sram_sp_colend_p_cent VGND VPB VNB
.ends
* NGSPICE file created from sky130_fd_bd_sram__sram_sp_colend.ext - technology: sky130A

.subckt sky130_fd_bd_sram__sram_sp_colend bl br vdd gnd vpb vnb gate
*X0 br gate br vnb sky130_fd_pr__special_nfet_pass w=0.07u l=0.21u
.ends

* NGSPICE file created from sky130_fd_bd_sram__sram_sp_wlstrapa_p.ext - technology: sky130A

.subckt sky130_fd_bd_sram__sram_sp_wlstrapa_p VGND
.ends

.SUBCKT sram_32b_256_1rw_sky130_sky130_replica_column
+ bl_0_0 br_0_0 wl_0_1 wl_0_2 wl_0_3 wl_0_4 wl_0_5 wl_0_6 wl_0_7 wl_0_8
+ wl_0_9 wl_0_10 wl_0_11 wl_0_12 wl_0_13 wl_0_14 wl_0_15 wl_0_16 wl_0_17
+ wl_0_18 wl_0_19 wl_0_20 wl_0_21 wl_0_22 wl_0_23 wl_0_24 wl_0_25
+ wl_0_26 wl_0_27 wl_0_28 wl_0_29 wl_0_30 wl_0_31 wl_0_32 wl_0_33
+ wl_0_34 wl_0_35 wl_0_36 wl_0_37 wl_0_38 wl_0_39 wl_0_40 wl_0_41
+ wl_0_42 wl_0_43 wl_0_44 wl_0_45 wl_0_46 wl_0_47 wl_0_48 wl_0_49
+ wl_0_50 wl_0_51 wl_0_52 wl_0_53 wl_0_54 wl_0_55 wl_0_56 wl_0_57
+ wl_0_58 wl_0_59 wl_0_60 wl_0_61 wl_0_62 wl_0_63 wl_0_64 wl_0_65
+ wl_0_66 wl_0_67 wl_0_68 wl_0_69 wl_0_70 wl_0_71 wl_0_72 wl_0_73